Circuit: * C:\Boti\git\game\hardware\vga conn.asc

Direct Newton iteration for .op point succeeded.

Date: Fri Mar 22 12:46:41 2024
Total elapsed time: 0.037 seconds.

tnom = 27
temp = 27
method = modified trap
totiter = 2091
traniter = 2088
tranpoints = 1045
accept = 1045
rejected = 0
matrix size = 7
fillins = 0
solver = Normal
Avg thread counts: 2.9/4.8/4.8/2.9
Matrix Compiler1:      11 opcodes  0.1/[0.1]/0.1
Matrix Compiler2: 427 bytes object code size  0.1/0.1/[0.1]

